<?xml version="1.0" encoding="UTF-8"?>
<!-- Generated on 2025-06-12 00:11:21 -->
<routes xmlns:xsi="http://www.w3.org/2001/XMLSchema-instance" xsi:noNamespaceSchemaLocation="http://sumo.dlr.de/xsd/routes_file.xsd">

    <!-- Vehicle Types -->
    <vType id="CAV" accel="4.0" decel="5.0" maxSpeed="30" length="4" minGap="0.0" tau="0.01" color="1,1,0"/>
    <vType id="CAV2" accel="4.0" decel="10.0" maxSpeed="30" length="4" minGap="0.0" tau="0.01" color="0,1,1"/>

    <!-- Routes -->
    <route id="main" edges="highway"/>

    <vehicle id="p1veh1" type="CAV" depart="0.00" route="main" departSpeed="30" departPos="760"/>
    <vehicle id="p1veh2" type="CAV" depart="0.00" route="main" departSpeed="30" departPos="720"/>
    <vehicle id="p1veh3" type="CAV" depart="0.00" route="main" departSpeed="30" departPos="680"/>
    <vehicle id="p1veh4" type="CAV" depart="0.00" route="main" departSpeed="30" departPos="640"/>
    <vehicle id="p1veh5" type="CAV" depart="0.00" route="main" departSpeed="30" departPos="600"/>
    <vehicle id="p1veh6" type="CAV" depart="0.00" route="main" departSpeed="30" departPos="560"/>
    <vehicle id="p1veh7" type="CAV" depart="0.00" route="main" departSpeed="30" departPos="520"/>
    <vehicle id="p1veh8" type="CAV" depart="0.00" route="main" departSpeed="30" departPos="480"/>
    <vehicle id="p2veh1" type="CAV2" depart="0.00" route="main" departSpeed="30" departPos="280"/>
    <vehicle id="p2veh2" type="CAV2" depart="0.00" route="main" departSpeed="30" departPos="240"/>
    <vehicle id="p2veh3" type="CAV2" depart="0.00" route="main" departSpeed="30" departPos="200"/>
    <vehicle id="p2veh4" type="CAV2" depart="0.00" route="main" departSpeed="30" departPos="160"/>
    <vehicle id="p2veh5" type="CAV2" depart="0.00" route="main" departSpeed="30" departPos="120"/>
    <vehicle id="p2veh6" type="CAV2" depart="0.00" route="main" departSpeed="30" departPos="80"/>
    <vehicle id="p2veh7" type="CAV2" depart="0.00" route="main" departSpeed="30" departPos="40"/>
    <vehicle id="p2veh8" type="CAV2" depart="0.00" route="main" departSpeed="30" departPos="0"/>
</routes>
