<?xml version="1.0" encoding="UTF-8"?>

<!-- generated on 2025-05-07 11:29:13 by Eclipse SUMO netedit Version 1.20.0
<configuration xmlns:xsi="http://www.w3.org/2001/XMLSchema-instance" xsi:noNamespaceSchemaLocation="http://sumo.dlr.de/xsd/neteditConfiguration.xsd">

    <input>
        <sumocfg-file value="/Users/ploy/Documents/RTNS/network/highway.sumocfg"/>
        <additional-files value=""/>
        <route-files value="/Users/ploy/Documents/RTNS/network/highway.rou.xml"/>
        <sumo-net-file value="/Users/ploy/Documents/RTNS/network/highway.net.xml"/>
    </input>

    <output>
        <output-file value="/Users/ploy/Documents/RTNS/network/highway.net.xml"/>
    </output>

    <processing>
        <geometry.min-radius.fix.railways value="false"/>
        <geometry.max-grade.fix value="false"/>
        <offset.disable-normalization value="true"/>
        <lefthand value="0"/>
    </processing>

    <junctions>
        <no-internal-links value="true"/>
        <no-turnarounds value="true"/>
        <junctions.corner-detail value="5"/>
        <junctions.limit-turn-speed value="5.50"/>
        <rectangular-lane-cut value="0"/>
    </junctions>

    <pedestrian>
        <walkingareas value="0"/>
    </pedestrian>

</configuration>
-->

<net version="1.20" junctionCornerDetail="5" limitTurnSpeed="5.50" xmlns:xsi="http://www.w3.org/2001/XMLSchema-instance" xsi:noNamespaceSchemaLocation="http://sumo.dlr.de/xsd/net_file.xsd">

    <location netOffset="0.00,0.00" convBoundary="-5000.00,0.00,5000.00,0.00" origBoundary="-10000000000.00,-10000000000.00,10000000000.00,10000000000.00" projParameter="!"/>

    <edge id="-highway" from="end" to="start" priority="-1">
        <lane id="-highway_0" index="0" speed="13.89" length="10000.00" shape="5000.00,1.60 -5000.00,1.60"/>
    </edge>
    <edge id="highway" from="start" to="end" priority="-1">
        <lane id="highway_0" index="0" speed="13.89" length="10000.00" shape="-5000.00,-1.60 5000.00,-1.60"/>
    </edge>

    <junction id="end" type="dead_end" x="5000.00" y="0.00" incLanes="highway_0" intLanes="" shape="5000.00,0.00 5000.00,-3.20 5000.00,0.00"/>
    <junction id="start" type="dead_end" x="-5000.00" y="0.00" incLanes="-highway_0" intLanes="" shape="-5000.00,0.00 -5000.00,3.20 -5000.00,0.00"/>

</net>
